
/*--------------------------------*- C++ -*----------------------------------*\
  =========                 |
  \      /  F ield         | OpenFOAM: The Open Source CFD Toolbox
   \    /   O peration     | Website:  https://openfoam.org
    \  /    A nd           | Version:  10
     \/     M anipulation  |
\*---------------------------------------------------------------------------*/
FoamFile
{
    format      ascii;
    class       dictionary;
    object      blockMeshDict;
}
// * * * * * * * * * * * * * * * * * * * * * * * * * * * * * * * * * * * * * // 


convertToMeters 1;
vertices ( 

(-200 -100 0)      ////0
(-7.806 -100 0)    ////1
(0 -100 0)         ////2
(7.806 -100 0)     ////3
(200 -100 0)       ////4
(200 -3.91 0)      ////5
(200 0 0)          ////6
(200 3.91 0)       ////7
(200 100 0)        ////8
(7.806 100 0)      ////9
(0 100 0)          ////10
(-7.806 100 0)     ////11
(-200 100 0)       ////12
(-200 3.91 0)      ////13
(-200 0 0)         ////14
(-200 -3.91 0)     ////15
(-10 0 0)          ////16
(-7.806 -3.91 0)   ////17
(0 -6.25 0)        ////18
(7.806 -3.91 0)    ////19
(10 0 0)           ////20
(7.806 3.91 0)     ////21
(0 6.25 0)         ////22
(-7.806 3.91 0)    ////23
(-8 0 0)           ////24
(-6.245 -3.13 0)   ////25
(0 -5 0)           ////26
(6.245 -3.13 0)    ////27
(8 0 0)            ////28
(6.245 3.13 0)     ////29
(0 5 0)            ////30
(-6.245 3.13 0)    ////31


(-200 -100 1)      ////32
(-7.806 -100 1)    ////33
(0 -100 1)         ////34
(7.806 -100 1)     ////35
(200 -100 1)       ////36
(200 -3.91 1)      ////37
(200 0 1)          ////38
(200 3.91 1)       ////39
(200 100 1)        ////40
(7.806 100 1)      ////41
(0 100 1)          ////42
(-7.806 100 1)     ////43
(-200 100 1)       ////44
(-200 3.91 1)      ////45
(-200 0 1)         ////46
(-200 -3.91 1)     ////47
(-10 0 1)          ////48
(-7.806 -3.91 1)   ////49
(0 -6.25 1)        ////50
(7.806 -3.91 1)    ////51
(10 0 1)           ////52
(7.806 3.91 1)     ////53
(0 6.25 1)         ////54
(-7.806 3.91 1)    ////55
(-8 0 1)           ////56
(-6.245 -3.13 1)   ////57
(0 -5 1)           ////58
(6.245 -3.13 1)    ////59
(8 0 1)            ////60
(6.245 3.13 1)     ////61
(0 5 1)            ////62
(-6.245 3.13 1)    ////63


); 

blocks  ( 

hex (0  1  17  15  32  33  49  47) (4 2 1) simpleGrading (1 1 1)       // Block Number 0

hex (1  2  18  17  33  34  50  49) (2 2 1) simpleGrading (1 1 1)       // Block Number 1

hex (2  3  19  18  34  35  51  50) (2 2 1) simpleGrading (1 1 1)       // Block Number 2

hex (3  4  5  19  35  36  37  51) (4 2 1) simpleGrading (1 1 1)        // Block Number 3

hex (19  5  6  20  51  37  38  52) (4 2 1) simpleGrading (1 1 1)       // Block Number 4

hex (20  6  7  21  52  38  39  53) (4 2 1) simpleGrading (1 1 1)       // Block Number 5

hex (21  7  8  9  53  39  40  41) (4 2 1) simpleGrading (1 1 1)        // Block Number 6

hex (22  21  9  10  54  53  41  42) (2 2 1) simpleGrading (1 1 1)      // Block Number 7

hex (23  22  10  11  55  54  42  43) (2 2 1) simpleGrading (1 1 1)     // Block Number 8

hex (13  23  11  12  45  55  43  44) (4 2 1) simpleGrading (1 1 1)     // Block Number 9

hex (14  16  23  13  46  48  55  45) (4 2 1) simpleGrading (1 1 1)     // Block Number 10

hex (15  17  16  14  47  49  48  46) (4 2 1) simpleGrading (1 1 1)     // Block Number 11

hex (16  17  25  24  48  49  57  56) (2 2 1) simpleGrading (1 1 1)     // Block Number 12

hex (17  18  26  25  49  50  58  57) (2 2 1) simpleGrading (1 1 1)     // Block Number 13

hex (18  19  27  26  50  51  59  58) (2 2 1) simpleGrading (1 1 1)     // Block Number 14

hex (19  20  28  27  51  52  60  59) (2 2 1) simpleGrading (1 1 1)     // Block Number 15

hex (28  20  21  29  60  52  53  61) (2 2 1) simpleGrading (1 1 1)     // Block Number 16

hex (30  29  21  22  62  61  53  54) (2 2 1) simpleGrading (1 1 1)     // Block Number 17

hex (31  30  22  23  63  62  54  55) (2 2 1) simpleGrading (1 1 1)     // Block Number 18

hex (24  31  23  16  56  63  55  48) (2 2 1) simpleGrading (1 1 1)     // Block Number 19

);

edges (

polyLine 24 25 ((-8 0 0)
(-7.964183632620376 -0.47260046298946373 0)
(-7.928367265240751 -0.6676078176790106 0)
(-7.892550897861127 -0.8167294544858857 0)
(-7.856734530481502 -0.9420146540335315 0)
(-7.820918163101878 -1.0520142670103962 0)
(-7.785101795722253 -1.151118686566829 0)
(-7.7492854283426285 -1.241938905954585 0)
(-7.713469060963003 -1.3261779913248528 0)
(-7.677652693583379 -1.405020172885634 0)
(-7.641836326203755 -1.4793286013415496 0)
(-7.60601995882413 -1.549755573717717 0)
(-7.570203591444506 -1.6168083896311043 0)
(-7.534387224064881 -1.6808908954136006 0)
(-7.498570856685257 -1.742330863750497 0)
(-7.462754489305632 -1.8013987005272283 0)
(-7.426938121926008 -1.8583206183904935 0)
(-7.391121754546383 -1.913288155558301 0)
(-7.355305387166759 -1.966465208096638 0)
(-7.3194890197871345 -2.0179933265746524 0)
(-7.2836726524075095 -2.0679957738195527 0)
(-7.2478562850278845 -2.1165806807116136 0)
(-7.21203991764826 -2.163843533709902 0)
(-7.176223550268636 -2.2098691594266575 0)
(-7.140407182889011 -2.254733325292024 0)
(-7.104590815509387 -2.2985040434095785 0)
(-7.068774448129762 -2.3412426422625123 0)
(-7.032958080750138 -2.383004654908783 0)
(-6.997141713370514 -2.4238405606961684 0)
(-6.961325345990889 -2.463796409004876 0)
(-6.925508978611264 -2.502914347189121 0)
(-6.88969261123164 -2.541233070124693 0)
(-6.8538762438520155 -2.5787882051490794 0)
(-6.8180598764723905 -2.61561264340251 0)
(-6.782243509092766 -2.6517368264268857 0)
(-6.746427141713141 -2.6871889951993353 0)
(-6.710610774333517 -2.721995407454373 0)
(-6.674794406953892 -2.7561805280996023 0)
(-6.638978039574268 -2.78976719669196 0)
(-6.603161672194643 -2.822776775267936 0)
(-6.567345304815019 -2.855229279276182 0)
(-6.531528937435395 -2.8871434939175322 0)
(-6.49571257005577 -2.918537077834562 0)
(-6.459896202676146 -2.9494266557943565 0)
(-6.424079835296521 -2.979827901761421 0)
(-6.388263467916897 -3.00975561355268 0)
(-6.3524471005372725 -3.0392237800955497 0)
(-6.3166307331576474 -3.0682456421667266 0)
(-6.280814365778022 -3.0968337473688106 0)
(-6.244997998398398 -3.1249999999999996 0)
)

polyLine 56 57 ((-8 0 1)
(-7.964183632620376 -0.47260046298946373 1)
(-7.928367265240751 -0.6676078176790106 1)
(-7.892550897861127 -0.8167294544858857 1)
(-7.856734530481502 -0.9420146540335315 1)
(-7.820918163101878 -1.0520142670103962 1)
(-7.785101795722253 -1.151118686566829 1)
(-7.7492854283426285 -1.241938905954585 1)
(-7.713469060963003 -1.3261779913248528 1)
(-7.677652693583379 -1.405020172885634 1)
(-7.641836326203755 -1.4793286013415496 1)
(-7.60601995882413 -1.549755573717717 1)
(-7.570203591444506 -1.6168083896311043 1)
(-7.534387224064881 -1.6808908954136006 1)
(-7.498570856685257 -1.742330863750497 1)
(-7.462754489305632 -1.8013987005272283 1)
(-7.426938121926008 -1.8583206183904935 1)
(-7.391121754546383 -1.913288155558301 1)
(-7.355305387166759 -1.966465208096638 1)
(-7.3194890197871345 -2.0179933265746524 1)
(-7.2836726524075095 -2.0679957738195527 1)
(-7.2478562850278845 -2.1165806807116136 1)
(-7.21203991764826 -2.163843533709902 1)
(-7.176223550268636 -2.2098691594266575 1)
(-7.140407182889011 -2.254733325292024 1)
(-7.104590815509387 -2.2985040434095785 1)
(-7.068774448129762 -2.3412426422625123 1)
(-7.032958080750138 -2.383004654908783 1)
(-6.997141713370514 -2.4238405606961684 1)
(-6.961325345990889 -2.463796409004876 1)
(-6.925508978611264 -2.502914347189121 1)
(-6.88969261123164 -2.541233070124693 1)
(-6.8538762438520155 -2.5787882051490794 1)
(-6.8180598764723905 -2.61561264340251 1)
(-6.782243509092766 -2.6517368264268857 1)
(-6.746427141713141 -2.6871889951993353 1)
(-6.710610774333517 -2.721995407454373 1)
(-6.674794406953892 -2.7561805280996023 1)
(-6.638978039574268 -2.78976719669196 1)
(-6.603161672194643 -2.822776775267936 1)
(-6.567345304815019 -2.855229279276182 1)
(-6.531528937435395 -2.8871434939175322 1)
(-6.49571257005577 -2.918537077834562 1)
(-6.459896202676146 -2.9494266557943565 1)
(-6.424079835296521 -2.979827901761421 1)
(-6.388263467916897 -3.00975561355268 1)
(-6.3524471005372725 -3.0392237800955497 1)
(-6.3166307331576474 -3.0682456421667266 1)
(-6.280814365778022 -3.0968337473688106 1)
(-6.244997998398398 -3.1249999999999996 1)
)

polyLine 25 26 ((-6.244997998398398 -3.1249999999999996 0)
(-6.117549059655574 -3.221970082417743 0)
(-5.990100120912749 -3.314191816868845 0)
(-5.862651182169925 -3.402051375422811 0)
(-5.735202243427101 -3.4858786120636043 0)
(-5.607753304684276 -3.565957909185011 0)
(-5.480304365941452 -3.642536464762734 0)
(-5.352855427198627 -3.715830722622288 0)
(-5.2254064884558025 -3.7860314309645613 0)
(-5.097957549712978 -3.853307671122287 0)
(-4.970508610970153 -3.9178101020108893 0)
(-4.843059672227329 -3.9796735993693884 0)
(-4.715610733484505 -4.039019422412727 0)
(-4.58816179474168 -4.095957007433939 0)
(-4.460712855998856 -4.150585463989093 0)
(-4.333263917256032 -4.202994831785821 0)
(-4.205814978513207 -4.2532671434051155 0)
(-4.0783660397703825 -4.3014773282363254 0)
(-3.9509171010275583 -4.347693985609282 0)
(-3.8234681622847337 -4.391980049440747 0)
(-3.696019223541909 -4.434393362330228 0)
(-3.5685702847990846 -4.474987173622024 0)
(-3.4411213460562604 -4.5138105732623846 0)
(-3.313672407313436 -4.550908871150835 0)
(-3.1862234685706112 -4.586323929985086 0)
(-3.0587745298277866 -4.620094458233376 0)
(-2.9313255910849625 -4.652256268764013 0)
(-2.8038766523421383 -4.682842507763824 0)
(-2.6764277135993133 -4.711883857842415 0)
(-2.548978774856489 -4.739408718614851 0)
(-2.421529836113665 -4.765443367555576 0)
(-2.29408089737084 -4.790012103501075 0)
(-2.166631958628016 -4.81313737483199 0)
(-2.0391830198851917 -4.8348398940743404 0)
(-1.9117340811423666 -4.8551387404142625 0)
(-1.7842851423995425 -4.874051451412922 0)
(-1.6568362036567184 -4.891594105031594 0)
(-1.5293872649138933 -4.9077813929259 0)
(-1.4019383261710692 -4.922626685838562 0)
(-1.274489387428245 -4.936142091808199 0)
(-1.14704044868542 -4.948338507814689 0)
(-1.0195915099425958 -4.9592256653970885 0)
(-0.8921425711997708 -4.9688121707059025 0)
(-0.7646936324569467 -4.977105539386062 0)
(-0.6372446937141225 -4.984112226628746 0)
(-0.5097957549712975 -4.989837652678021 0)
(-0.38234681622847333 -4.994286224031104 0)
(-0.2548978774856492 -4.997461350527968 0)
(-0.12744893874282415 -4.999365458486228 0)
(0 -5 0)
)

polyLine 57 58 ((-6.244997998398398 -3.1249999999999996 1)
(-6.117549059655574 -3.221970082417743 1)
(-5.990100120912749 -3.314191816868845 1)
(-5.862651182169925 -3.402051375422811 1)
(-5.735202243427101 -3.4858786120636043 1)
(-5.607753304684276 -3.565957909185011 1)
(-5.480304365941452 -3.642536464762734 1)
(-5.352855427198627 -3.715830722622288 1)
(-5.2254064884558025 -3.7860314309645613 1)
(-5.097957549712978 -3.853307671122287 1)
(-4.970508610970153 -3.9178101020108893 1)
(-4.843059672227329 -3.9796735993693884 1)
(-4.715610733484505 -4.039019422412727 1)
(-4.58816179474168 -4.095957007433939 1)
(-4.460712855998856 -4.150585463989093 1)
(-4.333263917256032 -4.202994831785821 1)
(-4.205814978513207 -4.2532671434051155 1)
(-4.0783660397703825 -4.3014773282363254 1)
(-3.9509171010275583 -4.347693985609282 1)
(-3.8234681622847337 -4.391980049440747 1)
(-3.696019223541909 -4.434393362330228 1)
(-3.5685702847990846 -4.474987173622024 1)
(-3.4411213460562604 -4.5138105732623846 1)
(-3.313672407313436 -4.550908871150835 1)
(-3.1862234685706112 -4.586323929985086 1)
(-3.0587745298277866 -4.620094458233376 1)
(-2.9313255910849625 -4.652256268764013 1)
(-2.8038766523421383 -4.682842507763824 1)
(-2.6764277135993133 -4.711883857842415 1)
(-2.548978774856489 -4.739408718614851 1)
(-2.421529836113665 -4.765443367555576 1)
(-2.29408089737084 -4.790012103501075 1)
(-2.166631958628016 -4.81313737483199 1)
(-2.0391830198851917 -4.8348398940743404 1)
(-1.9117340811423666 -4.8551387404142625 1)
(-1.7842851423995425 -4.874051451412922 1)
(-1.6568362036567184 -4.891594105031594 1)
(-1.5293872649138933 -4.9077813929259 1)
(-1.4019383261710692 -4.922626685838562 1)
(-1.274489387428245 -4.936142091808199 1)
(-1.14704044868542 -4.948338507814689 1)
(-1.0195915099425958 -4.9592256653970885 1)
(-0.8921425711997708 -4.9688121707059025 1)
(-0.7646936324569467 -4.977105539386062 1)
(-0.6372446937141225 -4.984112226628746 1)
(-0.5097957549712975 -4.989837652678021 1)
(-0.38234681622847333 -4.994286224031104 1)
(-0.2548978774856492 -4.997461350527968 1)
(-0.12744893874282415 -4.999365458486228 1)
(0 -5 1)
)

polyLine 26 27 ((0 -5 0)
(0.12744893874282445 -4.999365458486228 0)
(0.2548978774856489 -4.997461350527968 0)
(0.3823468162284734 -4.994286224031104 0)
(0.5097957549712978 -4.989837652678021 0)
(0.6372446937141223 -4.984112226628746 0)
(0.7646936324569468 -4.977105539386062 0)
(0.8921425711997713 -4.9688121707059025 0)
(1.0195915099425956 -4.9592256653970885 0)
(1.14704044868542 -4.948338507814689 0)
(1.2744893874282446 -4.936142091808199 0)
(1.401938326171069 -4.922626685838562 0)
(1.5293872649138935 -4.9077813929259 0)
(1.656836203656718 -4.891594105031594 0)
(1.7842851423995425 -4.874051451412922 0)
(1.9117340811423666 -4.8551387404142625 0)
(2.0391830198851912 -4.8348398940743404 0)
(2.166631958628016 -4.81313737483199 0)
(2.29408089737084 -4.790012103501075 0)
(2.4215298361136646 -4.765443367555576 0)
(2.548978774856489 -4.739408718614851 0)
(2.6764277135993138 -4.711883857842415 0)
(2.803876652342138 -4.682842507763825 0)
(2.9313255910849625 -4.652256268764013 0)
(3.058774529827787 -4.620094458233376 0)
(3.1862234685706117 -4.586323929985086 0)
(3.313672407313436 -4.550908871150835 0)
(3.44112134605626 -4.5138105732623846 0)
(3.568570284799085 -4.474987173622024 0)
(3.696019223541909 -4.434393362330228 0)
(3.8234681622847333 -4.391980049440748 0)
(3.9509171010275583 -4.347693985609282 0)
(4.0783660397703825 -4.3014773282363254 0)
(4.205814978513207 -4.2532671434051155 0)
(4.333263917256032 -4.202994831785821 0)
(4.460712855998856 -4.150585463989093 0)
(4.58816179474168 -4.095957007433939 0)
(4.715610733484505 -4.039019422412727 0)
(4.843059672227329 -3.9796735993693884 0)
(4.970508610970153 -3.9178101020108893 0)
(5.097957549712978 -3.853307671122287 0)
(5.2254064884558025 -3.7860314309645613 0)
(5.3528554271986275 -3.7158307226222873 0)
(5.480304365941452 -3.642536464762734 0)
(5.607753304684276 -3.565957909185011 0)
(5.735202243427101 -3.4858786120636043 0)
(5.862651182169925 -3.402051375422811 0)
(5.990100120912749 -3.314191816868845 0)
(6.117549059655574 -3.221970082417743 0)
(6.244997998398398 -3.1249999999999996 0)
)

polyLine 58 59 ((0 -5 1)
(0.12744893874282445 -4.999365458486228 1)
(0.2548978774856489 -4.997461350527968 1)
(0.3823468162284734 -4.994286224031104 1)
(0.5097957549712978 -4.989837652678021 1)
(0.6372446937141223 -4.984112226628746 1)
(0.7646936324569468 -4.977105539386062 1)
(0.8921425711997713 -4.9688121707059025 1)
(1.0195915099425956 -4.9592256653970885 1)
(1.14704044868542 -4.948338507814689 1)
(1.2744893874282446 -4.936142091808199 1)
(1.401938326171069 -4.922626685838562 1)
(1.5293872649138935 -4.9077813929259 1)
(1.656836203656718 -4.891594105031594 1)
(1.7842851423995425 -4.874051451412922 1)
(1.9117340811423666 -4.8551387404142625 1)
(2.0391830198851912 -4.8348398940743404 1)
(2.166631958628016 -4.81313737483199 1)
(2.29408089737084 -4.790012103501075 1)
(2.4215298361136646 -4.765443367555576 1)
(2.548978774856489 -4.739408718614851 1)
(2.6764277135993138 -4.711883857842415 1)
(2.803876652342138 -4.682842507763825 1)
(2.9313255910849625 -4.652256268764013 1)
(3.058774529827787 -4.620094458233376 1)
(3.1862234685706117 -4.586323929985086 1)
(3.313672407313436 -4.550908871150835 1)
(3.44112134605626 -4.5138105732623846 1)
(3.568570284799085 -4.474987173622024 1)
(3.696019223541909 -4.434393362330228 1)
(3.8234681622847333 -4.391980049440748 1)
(3.9509171010275583 -4.347693985609282 1)
(4.0783660397703825 -4.3014773282363254 1)
(4.205814978513207 -4.2532671434051155 1)
(4.333263917256032 -4.202994831785821 1)
(4.460712855998856 -4.150585463989093 1)
(4.58816179474168 -4.095957007433939 1)
(4.715610733484505 -4.039019422412727 1)
(4.843059672227329 -3.9796735993693884 1)
(4.970508610970153 -3.9178101020108893 1)
(5.097957549712978 -3.853307671122287 1)
(5.2254064884558025 -3.7860314309645613 1)
(5.3528554271986275 -3.7158307226222873 1)
(5.480304365941452 -3.642536464762734 1)
(5.607753304684276 -3.565957909185011 1)
(5.735202243427101 -3.4858786120636043 1)
(5.862651182169925 -3.402051375422811 1)
(5.990100120912749 -3.314191816868845 1)
(6.117549059655574 -3.221970082417743 1)
(6.244997998398398 -3.1249999999999996 1)
)

polyLine 27 28 ((6.244997998398398 -3.1249999999999996 0)
(6.280814365778022 -3.0968337473688106 0)
(6.3166307331576474 -3.0682456421667266 0)
(6.352447100537272 -3.03922378009555 0)
(6.388263467916897 -3.00975561355268 0)
(6.424079835296521 -2.979827901761421 0)
(6.459896202676146 -2.9494266557943565 0)
(6.49571257005577 -2.918537077834562 0)
(6.531528937435395 -2.8871434939175322 0)
(6.567345304815019 -2.855229279276182 0)
(6.603161672194643 -2.822776775267936 0)
(6.638978039574268 -2.78976719669196 0)
(6.674794406953892 -2.7561805280996023 0)
(6.710610774333517 -2.721995407454373 0)
(6.746427141713141 -2.6871889951993353 0)
(6.782243509092766 -2.6517368264268857 0)
(6.8180598764723905 -2.61561264340251 0)
(6.8538762438520155 -2.5787882051490794 0)
(6.88969261123164 -2.541233070124693 0)
(6.925508978611264 -2.502914347189121 0)
(6.961325345990889 -2.463796409004876 0)
(6.997141713370514 -2.4238405606961684 0)
(7.032958080750138 -2.383004654908783 0)
(7.068774448129762 -2.3412426422625123 0)
(7.104590815509387 -2.2985040434095785 0)
(7.140407182889011 -2.254733325292024 0)
(7.176223550268636 -2.2098691594266575 0)
(7.21203991764826 -2.163843533709902 0)
(7.2478562850278845 -2.1165806807116136 0)
(7.2836726524075095 -2.0679957738195527 0)
(7.3194890197871345 -2.0179933265746524 0)
(7.355305387166759 -1.966465208096638 0)
(7.391121754546383 -1.913288155558301 0)
(7.426938121926008 -1.8583206183904935 0)
(7.462754489305632 -1.8013987005272283 0)
(7.498570856685257 -1.742330863750497 0)
(7.534387224064881 -1.6808908954136006 0)
(7.570203591444506 -1.6168083896311043 0)
(7.60601995882413 -1.549755573717717 0)
(7.641836326203755 -1.4793286013415496 0)
(7.677652693583379 -1.405020172885634 0)
(7.713469060963003 -1.3261779913248528 0)
(7.7492854283426285 -1.241938905954585 0)
(7.785101795722253 -1.151118686566829 0)
(7.820918163101878 -1.0520142670103962 0)
(7.856734530481502 -0.9420146540335315 0)
(7.892550897861126 -0.8167294544858901 0)
(7.928367265240751 -0.6676078176790106 0)
(7.964183632620376 -0.47260046298946373 0)
(8 0 0)
)

polyLine 59 60 ((6.244997998398398 -3.1249999999999996 1)
(6.280814365778022 -3.0968337473688106 1)
(6.3166307331576474 -3.0682456421667266 1)
(6.352447100537272 -3.03922378009555 1)
(6.388263467916897 -3.00975561355268 1)
(6.424079835296521 -2.979827901761421 1)
(6.459896202676146 -2.9494266557943565 1)
(6.49571257005577 -2.918537077834562 1)
(6.531528937435395 -2.8871434939175322 1)
(6.567345304815019 -2.855229279276182 1)
(6.603161672194643 -2.822776775267936 1)
(6.638978039574268 -2.78976719669196 1)
(6.674794406953892 -2.7561805280996023 1)
(6.710610774333517 -2.721995407454373 1)
(6.746427141713141 -2.6871889951993353 1)
(6.782243509092766 -2.6517368264268857 1)
(6.8180598764723905 -2.61561264340251 1)
(6.8538762438520155 -2.5787882051490794 1)
(6.88969261123164 -2.541233070124693 1)
(6.925508978611264 -2.502914347189121 1)
(6.961325345990889 -2.463796409004876 1)
(6.997141713370514 -2.4238405606961684 1)
(7.032958080750138 -2.383004654908783 1)
(7.068774448129762 -2.3412426422625123 1)
(7.104590815509387 -2.2985040434095785 1)
(7.140407182889011 -2.254733325292024 1)
(7.176223550268636 -2.2098691594266575 1)
(7.21203991764826 -2.163843533709902 1)
(7.2478562850278845 -2.1165806807116136 1)
(7.2836726524075095 -2.0679957738195527 1)
(7.3194890197871345 -2.0179933265746524 1)
(7.355305387166759 -1.966465208096638 1)
(7.391121754546383 -1.913288155558301 1)
(7.426938121926008 -1.8583206183904935 1)
(7.462754489305632 -1.8013987005272283 1)
(7.498570856685257 -1.742330863750497 1)
(7.534387224064881 -1.6808908954136006 1)
(7.570203591444506 -1.6168083896311043 1)
(7.60601995882413 -1.549755573717717 1)
(7.641836326203755 -1.4793286013415496 1)
(7.677652693583379 -1.405020172885634 1)
(7.713469060963003 -1.3261779913248528 1)
(7.7492854283426285 -1.241938905954585 1)
(7.785101795722253 -1.151118686566829 1)
(7.820918163101878 -1.0520142670103962 1)
(7.856734530481502 -0.9420146540335315 1)
(7.892550897861126 -0.8167294544858901 1)
(7.928367265240751 -0.6676078176790106 1)
(7.964183632620376 -0.47260046298946373 1)
(8 0 1)
)

polyLine 28 29 ((8 0 0)
(7.964183632620376 0.47260046298946373 0)
(7.928367265240751 0.6676078176790106 0)
(7.892550897861127 0.8167294544858857 0)
(7.856734530481502 0.9420146540335315 0)
(7.820918163101878 1.0520142670103962 0)
(7.785101795722253 1.151118686566829 0)
(7.7492854283426285 1.241938905954585 0)
(7.713469060963003 1.3261779913248528 0)
(7.677652693583379 1.405020172885634 0)
(7.641836326203755 1.4793286013415496 0)
(7.60601995882413 1.549755573717717 0)
(7.570203591444506 1.6168083896311043 0)
(7.534387224064881 1.6808908954136006 0)
(7.498570856685257 1.742330863750497 0)
(7.462754489305632 1.8013987005272283 0)
(7.426938121926008 1.8583206183904935 0)
(7.391121754546383 1.913288155558301 0)
(7.355305387166759 1.966465208096638 0)
(7.3194890197871345 2.0179933265746524 0)
(7.2836726524075095 2.0679957738195527 0)
(7.2478562850278845 2.1165806807116136 0)
(7.21203991764826 2.163843533709902 0)
(7.176223550268636 2.2098691594266575 0)
(7.140407182889011 2.254733325292024 0)
(7.104590815509387 2.2985040434095785 0)
(7.068774448129762 2.3412426422625123 0)
(7.032958080750138 2.383004654908783 0)
(6.997141713370514 2.4238405606961684 0)
(6.961325345990889 2.463796409004876 0)
(6.925508978611264 2.502914347189121 0)
(6.88969261123164 2.541233070124693 0)
(6.8538762438520155 2.5787882051490794 0)
(6.8180598764723905 2.61561264340251 0)
(6.782243509092766 2.6517368264268857 0)
(6.746427141713141 2.6871889951993353 0)
(6.710610774333517 2.721995407454373 0)
(6.674794406953892 2.7561805280996023 0)
(6.638978039574268 2.78976719669196 0)
(6.603161672194643 2.822776775267936 0)
(6.567345304815019 2.855229279276182 0)
(6.531528937435395 2.8871434939175322 0)
(6.49571257005577 2.918537077834562 0)
(6.459896202676146 2.9494266557943565 0)
(6.424079835296521 2.979827901761421 0)
(6.388263467916897 3.00975561355268 0)
(6.3524471005372725 3.0392237800955497 0)
(6.3166307331576474 3.0682456421667266 0)
(6.280814365778022 3.0968337473688106 0)
(6.244997998398398 3.1249999999999996 0)
)

polyLine 60 61 ((8 0 1)
(7.964183632620376 0.47260046298946373 1)
(7.928367265240751 0.6676078176790106 1)
(7.892550897861127 0.8167294544858857 1)
(7.856734530481502 0.9420146540335315 1)
(7.820918163101878 1.0520142670103962 1)
(7.785101795722253 1.151118686566829 1)
(7.7492854283426285 1.241938905954585 1)
(7.713469060963003 1.3261779913248528 1)
(7.677652693583379 1.405020172885634 1)
(7.641836326203755 1.4793286013415496 1)
(7.60601995882413 1.549755573717717 1)
(7.570203591444506 1.6168083896311043 1)
(7.534387224064881 1.6808908954136006 1)
(7.498570856685257 1.742330863750497 1)
(7.462754489305632 1.8013987005272283 1)
(7.426938121926008 1.8583206183904935 1)
(7.391121754546383 1.913288155558301 1)
(7.355305387166759 1.966465208096638 1)
(7.3194890197871345 2.0179933265746524 1)
(7.2836726524075095 2.0679957738195527 1)
(7.2478562850278845 2.1165806807116136 1)
(7.21203991764826 2.163843533709902 1)
(7.176223550268636 2.2098691594266575 1)
(7.140407182889011 2.254733325292024 1)
(7.104590815509387 2.2985040434095785 1)
(7.068774448129762 2.3412426422625123 1)
(7.032958080750138 2.383004654908783 1)
(6.997141713370514 2.4238405606961684 1)
(6.961325345990889 2.463796409004876 1)
(6.925508978611264 2.502914347189121 1)
(6.88969261123164 2.541233070124693 1)
(6.8538762438520155 2.5787882051490794 1)
(6.8180598764723905 2.61561264340251 1)
(6.782243509092766 2.6517368264268857 1)
(6.746427141713141 2.6871889951993353 1)
(6.710610774333517 2.721995407454373 1)
(6.674794406953892 2.7561805280996023 1)
(6.638978039574268 2.78976719669196 1)
(6.603161672194643 2.822776775267936 1)
(6.567345304815019 2.855229279276182 1)
(6.531528937435395 2.8871434939175322 1)
(6.49571257005577 2.918537077834562 1)
(6.459896202676146 2.9494266557943565 1)
(6.424079835296521 2.979827901761421 1)
(6.388263467916897 3.00975561355268 1)
(6.3524471005372725 3.0392237800955497 1)
(6.3166307331576474 3.0682456421667266 1)
(6.280814365778022 3.0968337473688106 1)
(6.244997998398398 3.1249999999999996 1)
)

polyLine 29 30 ((6.244997998398398 3.1249999999999996 0)
(6.117549059655574 3.221970082417743 0)
(5.990100120912749 3.314191816868845 0)
(5.862651182169925 3.402051375422811 0)
(5.735202243427101 3.4858786120636043 0)
(5.607753304684276 3.565957909185011 0)
(5.480304365941452 3.642536464762734 0)
(5.352855427198627 3.715830722622288 0)
(5.2254064884558025 3.7860314309645613 0)
(5.097957549712978 3.853307671122287 0)
(4.970508610970153 3.9178101020108893 0)
(4.843059672227329 3.9796735993693884 0)
(4.715610733484505 4.039019422412727 0)
(4.58816179474168 4.095957007433939 0)
(4.460712855998856 4.150585463989093 0)
(4.333263917256032 4.202994831785821 0)
(4.205814978513207 4.2532671434051155 0)
(4.0783660397703825 4.3014773282363254 0)
(3.9509171010275583 4.347693985609282 0)
(3.8234681622847337 4.391980049440747 0)
(3.696019223541909 4.434393362330228 0)
(3.5685702847990846 4.474987173622024 0)
(3.4411213460562604 4.5138105732623846 0)
(3.313672407313436 4.550908871150835 0)
(3.1862234685706112 4.586323929985086 0)
(3.0587745298277866 4.620094458233376 0)
(2.9313255910849625 4.652256268764013 0)
(2.8038766523421383 4.682842507763824 0)
(2.6764277135993133 4.711883857842415 0)
(2.548978774856489 4.739408718614851 0)
(2.421529836113665 4.765443367555576 0)
(2.29408089737084 4.790012103501075 0)
(2.166631958628016 4.81313737483199 0)
(2.0391830198851917 4.8348398940743404 0)
(1.9117340811423666 4.8551387404142625 0)
(1.7842851423995425 4.874051451412922 0)
(1.6568362036567184 4.891594105031594 0)
(1.5293872649138933 4.9077813929259 0)
(1.4019383261710692 4.922626685838562 0)
(1.274489387428245 4.936142091808199 0)
(1.14704044868542 4.948338507814689 0)
(1.0195915099425958 4.9592256653970885 0)
(0.8921425711997708 4.9688121707059025 0)
(0.7646936324569467 4.977105539386062 0)
(0.6372446937141225 4.984112226628746 0)
(0.5097957549712975 4.989837652678021 0)
(0.38234681622847333 4.994286224031104 0)
(0.2548978774856492 4.997461350527968 0)
(0.12744893874282415 4.999365458486228 0)
(0 5 0)
)

polyLine 61 62 ((6.244997998398398 3.1249999999999996 1)
(6.117549059655574 3.221970082417743 1)
(5.990100120912749 3.314191816868845 1)
(5.862651182169925 3.402051375422811 1)
(5.735202243427101 3.4858786120636043 1)
(5.607753304684276 3.565957909185011 1)
(5.480304365941452 3.642536464762734 1)
(5.352855427198627 3.715830722622288 1)
(5.2254064884558025 3.7860314309645613 1)
(5.097957549712978 3.853307671122287 1)
(4.970508610970153 3.9178101020108893 1)
(4.843059672227329 3.9796735993693884 1)
(4.715610733484505 4.039019422412727 1)
(4.58816179474168 4.095957007433939 1)
(4.460712855998856 4.150585463989093 1)
(4.333263917256032 4.202994831785821 1)
(4.205814978513207 4.2532671434051155 1)
(4.0783660397703825 4.3014773282363254 1)
(3.9509171010275583 4.347693985609282 1)
(3.8234681622847337 4.391980049440747 1)
(3.696019223541909 4.434393362330228 1)
(3.5685702847990846 4.474987173622024 1)
(3.4411213460562604 4.5138105732623846 1)
(3.313672407313436 4.550908871150835 1)
(3.1862234685706112 4.586323929985086 1)
(3.0587745298277866 4.620094458233376 1)
(2.9313255910849625 4.652256268764013 1)
(2.8038766523421383 4.682842507763824 1)
(2.6764277135993133 4.711883857842415 1)
(2.548978774856489 4.739408718614851 1)
(2.421529836113665 4.765443367555576 1)
(2.29408089737084 4.790012103501075 1)
(2.166631958628016 4.81313737483199 1)
(2.0391830198851917 4.8348398940743404 1)
(1.9117340811423666 4.8551387404142625 1)
(1.7842851423995425 4.874051451412922 1)
(1.6568362036567184 4.891594105031594 1)
(1.5293872649138933 4.9077813929259 1)
(1.4019383261710692 4.922626685838562 1)
(1.274489387428245 4.936142091808199 1)
(1.14704044868542 4.948338507814689 1)
(1.0195915099425958 4.9592256653970885 1)
(0.8921425711997708 4.9688121707059025 1)
(0.7646936324569467 4.977105539386062 1)
(0.6372446937141225 4.984112226628746 1)
(0.5097957549712975 4.989837652678021 1)
(0.38234681622847333 4.994286224031104 1)
(0.2548978774856492 4.997461350527968 1)
(0.12744893874282415 4.999365458486228 1)
(0 5 1)
)

polyLine 30 31 ((0 5 0)
(-0.12744893874282445 4.999365458486228 0)
(-0.2548978774856489 4.997461350527968 0)
(-0.3823468162284734 4.994286224031104 0)
(-0.5097957549712978 4.989837652678021 0)
(-0.6372446937141223 4.984112226628746 0)
(-0.7646936324569468 4.977105539386062 0)
(-0.8921425711997713 4.9688121707059025 0)
(-1.0195915099425956 4.9592256653970885 0)
(-1.14704044868542 4.948338507814689 0)
(-1.2744893874282446 4.936142091808199 0)
(-1.401938326171069 4.922626685838562 0)
(-1.5293872649138935 4.9077813929259 0)
(-1.656836203656718 4.891594105031594 0)
(-1.7842851423995425 4.874051451412922 0)
(-1.9117340811423666 4.8551387404142625 0)
(-2.0391830198851912 4.8348398940743404 0)
(-2.166631958628016 4.81313737483199 0)
(-2.29408089737084 4.790012103501075 0)
(-2.4215298361136646 4.765443367555576 0)
(-2.548978774856489 4.739408718614851 0)
(-2.6764277135993138 4.711883857842415 0)
(-2.803876652342138 4.682842507763825 0)
(-2.9313255910849625 4.652256268764013 0)
(-3.058774529827787 4.620094458233376 0)
(-3.1862234685706117 4.586323929985086 0)